examples/case3_bad_data_deepseek_fixed.py
from numpy import array


def case3_bad_data_deepseek_fixed():
    ppc = {}
    ppc['version'] = '2'
    ppc['baseMVA'] = 100
    ppc['bus'] = array([
        [1, 1, 0, 0, 0, 0, 1, 1, 0, 110, 1, 1.06, 0.94],
        [2, 3, 40, 20, 0, 0, 1, 1.02, 0, 110, 1, 1.06, 0.94],
        [3, 1, 130, 85, 0, 0, 1, 1, 0, 110, 1, 1.06, 0.94]
    ])
    ppc['gen'] = array([
        [2, 175.1, 0, 252, -126, 1.05, 100, 1, 250, 10, 0, 0, 0, 0, 0, 0, 0, 0, 0, 0, 0]
    ])
    ppc['branch'] = array([
        [1, 2, 0.02, 0.06, 0.03, 250, 250, 250, 0, 0, 1, -360, 360],
        [2, 3, 0.01, 0.04, 0.02, 250, 250, 250, 0, 0, 1, -360, 360]
    ])
    return ppc
